Version 4
SHEET 1 3124 968
WIRE -1584 -1280 -1728 -1280
WIRE -1120 -1280 -1584 -1280
WIRE -560 -1280 -1120 -1280
WIRE -496 -1280 -560 -1280
WIRE -272 -1280 -496 -1280
WIRE 192 -1280 -272 -1280
WIRE -1120 -1120 -1120 -1280
WIRE -496 -1104 -496 -1280
WIRE -1728 -992 -1728 -1280
WIRE -608 -992 -656 -992
WIRE -496 -992 -496 -1024
WIRE -496 -992 -528 -992
WIRE 192 -976 192 -1280
WIRE 192 -976 112 -976
WIRE 256 -976 192 -976
WIRE -1120 -960 -1120 -1056
WIRE -880 -960 -1120 -960
WIRE -704 -960 -880 -960
WIRE 256 -928 256 -976
WIRE -704 -912 -704 -960
WIRE 112 -912 112 -976
WIRE -1728 -896 -1728 -992
WIRE -1584 -896 -1584 -1280
WIRE -1120 -848 -1120 -960
WIRE 112 -816 112 -848
WIRE 160 -816 112 -816
WIRE 256 -816 256 -848
WIRE 256 -816 160 -816
WIRE -272 -752 -272 -1280
WIRE -496 -720 -496 -992
WIRE -464 -720 -496 -720
WIRE -368 -720 -368 -880
WIRE -368 -720 -384 -720
WIRE 656 -720 656 -1008
WIRE -576 -656 -576 -736
WIRE -704 -640 -704 -832
WIRE -704 -640 -1056 -640
WIRE -608 -640 -704 -640
WIRE -272 -640 -272 -656
WIRE -80 -640 -272 -640
WIRE 160 -640 160 -816
WIRE 160 -640 -16 -640
WIRE 400 -640 160 -640
WIRE 608 -640 480 -640
WIRE -1728 -624 -1728 -832
WIRE -496 -624 -496 -720
WIRE -496 -624 -544 -624
WIRE -464 -624 -496 -624
WIRE -368 -624 -368 -720
WIRE -368 -624 -400 -624
WIRE -336 -624 -336 -704
WIRE -336 -624 -368 -624
WIRE -272 -624 -272 -640
WIRE -880 -608 -880 -880
WIRE -656 -608 -656 -992
WIRE -656 -608 -880 -608
WIRE -608 -608 -656 -608
WIRE -496 -608 -544 -608
WIRE -336 -576 -336 -624
WIRE -704 -560 -704 -640
WIRE -704 -560 -752 -560
WIRE -672 -560 -704 -560
WIRE -576 -512 -576 -592
WIRE -1728 -432 -1728 -624
WIRE -1632 -432 -1728 -432
WIRE -1584 -432 -1584 -832
WIRE -1584 -432 -1632 -432
WIRE -1120 -432 -1120 -784
WIRE -1120 -432 -1584 -432
WIRE -496 -432 -496 -608
WIRE -496 -432 -1120 -432
WIRE -272 -432 -272 -528
WIRE -272 -432 -496 -432
WIRE 656 -432 656 -624
WIRE 784 -432 784 -496
WIRE 784 -432 656 -432
WIRE 960 -432 784 -432
WIRE 1216 -432 960 -432
WIRE -1056 -400 -1056 -640
WIRE -672 -400 -672 -480
WIRE -464 -352 -560 -352
WIRE 656 -352 656 -432
WIRE 880 -352 784 -352
WIRE 960 -352 880 -352
WIRE -752 -336 -752 -480
WIRE -704 -336 -752 -336
WIRE -672 -336 -704 -336
WIRE -880 -320 -880 -608
WIRE -752 -320 -880 -320
WIRE -704 -304 -704 -336
WIRE -752 -288 -752 -320
WIRE -1056 -272 -1056 -320
WIRE -560 -272 -560 -352
WIRE -560 -272 -624 -272
WIRE -496 -272 -560 -272
WIRE 1216 -256 1216 -432
WIRE -1632 -240 -1632 -432
WIRE 656 -208 656 -288
WIRE 768 -208 656 -208
WIRE 880 -208 880 -288
WIRE 880 -208 768 -208
WIRE -880 -176 -880 -320
WIRE -752 -176 -752 -224
WIRE -624 -176 -624 -272
WIRE -496 -176 -496 -272
WIRE -752 -96 -880 -96
WIRE -624 -96 -752 -96
WIRE -496 -96 -624 -96
WIRE -480 -96 -496 -96
WIRE 768 -80 768 -208
WIRE -480 -48 -480 -96
WIRE -448 -48 -480 -48
WIRE -112 -48 -384 -48
WIRE 1216 -48 1216 -176
WIRE -112 160 -112 -48
FLAG -576 -512 V-
FLAG -576 -736 V+
FLAG 1424 -96 0
FLAG 1424 -176 V+
FLAG 1568 -96 0
FLAG 1568 -176 V-
FLAG -464 -352 +U3
FLAG -704 -304 0
FLAG -112 240 0
FLAG -432 -880 +U3
FLAG 656 -1008 +U3
FLAG 768 -80 +U2
FLAG 784 -496 RAIL+A
FLAG -560 -1280 RAIL+A
FLAG -1632 -160 0
FLAG 1440 128 0
FLAG 1584 128 0
FLAG 1440 48 +U3
FLAG 1584 48 -U3
FLAG 1440 336 0
FLAG 1600 336 0
FLAG 1440 256 +U2
FLAG 1600 256 -U2
FLAG -1056 -272 +U2
FLAG -1808 -624 0
FLAG -1808 -992 0
FLAG 1216 -48 0
SYMBOL xcomp_x11 -576 -688 R0
SYMATTR InstName U3
SYMATTR Value LM311
SYMBOL npn -336 -752 R0
SYMATTR InstName Q1
SYMATTR Value 2N3904
SYMBOL pnp -336 -528 M180
SYMATTR InstName 2N3906
SYMBOL voltage 1424 -192 R0
WINDOW 123 0 0 Left 0
WINDOW 39 0 0 Left 0
SYMATTR InstName V1
SYMATTR Value 100
SYMBOL voltage 1568 -80 R180
WINDOW 0 24 96 Left 2
WINDOW 3 24 16 Left 2
WINDOW 123 0 0 Left 0
WINDOW 39 0 0 Left 0
SYMATTR InstName V2
SYMATTR Value 100
SYMBOL diode -384 -32 M270
WINDOW 0 32 32 VTop 2
WINDOW 3 0 32 VBottom 2
SYMATTR InstName D1
SYMATTR Value PH_BZX585-B12
SYMBOL res -480 -192 M0
SYMATTR InstName R1
SYMATTR Value 150K
SYMBOL res -608 -192 M0
SYMATTR InstName R2
SYMATTR Value 150K
SYMBOL res -736 -192 M0
SYMATTR InstName R3
SYMATTR Value 330K
SYMBOL res -864 -192 M0
SYMATTR InstName R4
SYMATTR Value 100K
SYMBOL cap -736 -288 M0
SYMATTR InstName C1
SYMATTR Value 15p
SYMBOL res -896 -976 R0
SYMATTR InstName R5
SYMATTR Value 3K3
SYMBOL diode -1104 -784 R180
WINDOW 0 24 64 Left 2
WINDOW 3 24 0 Left 2
SYMATTR InstName D2
SYMATTR Value PH_BZX384-B6V8
SYMBOL diode -1104 -1056 R180
WINDOW 0 24 64 Left 2
WINDOW 3 24 0 Left 2
SYMATTR InstName D3
SYMATTR Value PH_BZX384-B6V8
SYMBOL res -720 -928 R0
SYMATTR InstName R6
SYMATTR Value 3k3
SYMBOL res -768 -576 R0
SYMATTR InstName R7
SYMATTR Value 1Meg
SYMBOL res -688 -576 R0
SYMATTR InstName R8
SYMATTR Value 330k
SYMBOL cap -688 -400 R0
SYMATTR InstName C2
SYMATTR Value 15p
SYMBOL diode -464 -608 R270
WINDOW 0 32 32 VTop 2
WINDOW 3 0 32 VBottom 2
SYMATTR InstName D4
SYMATTR Value 1N4148
SYMBOL res -368 -736 R90
WINDOW 0 0 56 VBottom 2
WINDOW 3 32 56 VTop 2
SYMATTR InstName R9
SYMATTR Value 3k
SYMBOL res -512 -1120 R0
WINDOW 0 41 42 Left 2
SYMATTR InstName R10
SYMATTR Value 3K3
SYMBOL voltage -112 144 R0
WINDOW 123 0 0 Left 0
WINDOW 39 0 0 Left 0
SYMATTR InstName V3
SYMATTR Value SINE(0 50 1K)
SYMBOL cap -16 -656 R90
WINDOW 0 0 32 VBottom 2
WINDOW 3 32 32 VTop 2
SYMATTR InstName C3
SYMATTR Value 10µ
SYMBOL diode 96 -912 R0
SYMATTR InstName D5
SYMATTR Value 1N4148
SYMBOL res 240 -944 R0
SYMATTR InstName R11
SYMATTR Value 12k
SYMBOL cap -368 -896 R90
WINDOW 0 0 32 VBottom 2
WINDOW 3 32 32 VTop 2
SYMATTR InstName C4
SYMATTR Value 47p
SYMBOL res 496 -656 R90
WINDOW 0 0 56 VBottom 2
WINDOW 3 32 56 VTop 2
SYMATTR InstName R12
SYMATTR Value 47
SYMBOL nmos 608 -720 R0
SYMATTR InstName M1
SYMATTR Value HUFA76413DK8T
SYMBOL schottky 672 -288 R180
WINDOW 0 24 64 Left 2
WINDOW 3 24 0 Left 2
SYMATTR InstName D6
SYMATTR Value UPSC600
SYMATTR Description Diode
SYMATTR Type diode
SYMBOL res 768 -448 R0
SYMATTR InstName R13
SYMATTR Value 2.2
SYMBOL res 944 -448 R0
SYMATTR InstName R14
SYMATTR Value 2.2
SYMBOL cap 864 -352 R0
SYMATTR InstName C5
SYMATTR Value 10n
SYMBOL cap -1600 -896 R0
SYMATTR InstName C6
SYMATTR Value 220µ
SYMBOL cap -1744 -896 R0
SYMATTR InstName C7
SYMATTR Value 0.1µ
SYMBOL res -1648 -256 R0
SYMATTR InstName R15
SYMATTR Value 3k3
SYMBOL voltage 1440 32 R0
WINDOW 123 0 0 Left 0
WINDOW 39 0 0 Left 0
SYMATTR InstName V4
SYMATTR Value 100
SYMBOL voltage 1584 144 R180
WINDOW 0 24 96 Left 2
WINDOW 3 24 16 Left 2
WINDOW 123 0 0 Left 0
WINDOW 39 0 0 Left 0
SYMATTR InstName V5
SYMATTR Value 100
SYMBOL voltage 1440 240 R0
WINDOW 123 0 0 Left 0
WINDOW 39 0 0 Left 0
SYMATTR InstName V6
SYMATTR Value 50
SYMBOL voltage 1600 352 R180
WINDOW 0 24 96 Left 2
WINDOW 3 24 16 Left 2
WINDOW 123 0 0 Left 0
WINDOW 39 0 0 Left 0
SYMATTR InstName V7
SYMATTR Value 50
SYMBOL res -512 -1008 R90
WINDOW 0 0 56 VBottom 2
WINDOW 3 32 56 VTop 2
SYMATTR InstName R16
SYMATTR Value 270k
SYMBOL res -1072 -416 R0
SYMATTR InstName R17
SYMATTR Value 100k
SYMBOL voltage -1712 -992 R90
WINDOW 0 -32 56 VBottom 2
WINDOW 3 32 56 VTop 2
WINDOW 123 0 0 Left 0
WINDOW 39 0 0 Left 0
SYMATTR InstName V8
SYMATTR Value 15
SYMBOL voltage -1824 -624 R270
WINDOW 0 32 56 VTop 2
WINDOW 3 -32 56 VBottom 2
WINDOW 123 0 0 Left 0
WINDOW 39 0 0 Left 0
SYMATTR InstName V9
SYMATTR Value 15
SYMBOL res 1200 -272 R0
SYMATTR InstName R18
SYMATTR Value 8
TEXT 1376 -704 Left 2 !;INCLUDES\n.lib ../Includes/standard.bjt\n.inc ../Includes/standard.dio\n.lib ../Includes/LM339.sub\n.include LM311.301
TEXT 1368 -464 Left 2 !;SIMULACIONES\n.tran 0 2m 0 1m\n.param freq 1k\n;four {freq} V(vout)
TEXT 1384 -880 Left 2 !;OPTIONS\n.OPTIONS temp=25\n.OPTIONS plotwinsize=0\n.OPTIONS numdgt=6
