Version 4
SHEET 1 3124 968
WIRE 1200 48 -240 48
WIRE 112 64 -16 64
WIRE -16 80 -16 64
WIRE 3056 96 2016 96
WIRE 3072 96 3056 96
WIRE 112 112 112 64
WIRE 1792 144 1664 144
WIRE 2096 176 2016 176
WIRE 1792 192 1792 144
WIRE 2016 192 2016 176
WIRE 480 208 352 208
WIRE 608 208 480 208
WIRE -16 224 -16 160
WIRE 608 224 608 208
WIRE -48 240 -160 240
WIRE 1952 240 1856 240
WIRE 2160 240 2144 240
WIRE 2336 240 2160 240
WIRE 224 256 16 256
WIRE 288 256 224 256
WIRE -240 272 -240 48
WIRE -240 272 -352 272
WIRE -48 272 -240 272
WIRE 2336 272 2336 240
WIRE -16 288 -16 272
WIRE 2160 288 2160 240
WIRE 816 304 672 304
WIRE 1664 304 1664 144
WIRE 1632 320 1392 320
WIRE -160 336 -160 240
WIRE -144 336 -160 336
WIRE 1856 336 1856 240
WIRE 1856 336 1696 336
WIRE 2096 336 2096 176
WIRE -144 352 -144 336
WIRE 224 352 224 256
WIRE 1632 352 1536 352
WIRE 1664 368 1664 352
WIRE 480 384 480 208
WIRE 672 384 672 304
WIRE 1856 384 1856 336
WIRE -352 400 -352 272
WIRE 1664 416 1664 368
WIRE 608 432 608 304
WIRE 352 464 352 304
WIRE 1200 480 1200 48
WIRE 1536 480 1536 352
WIRE 1536 480 1200 480
WIRE -16 528 -16 288
WIRE 2016 528 2016 288
WIRE 2160 528 2160 384
WIRE 2160 528 2016 528
WIRE 2384 528 2160 528
WIRE 2448 528 2384 528
WIRE 1856 560 1856 464
WIRE 224 592 224 432
WIRE 480 592 480 464
WIRE 480 592 224 592
WIRE 816 592 816 304
WIRE 816 592 480 592
WIRE 832 592 816 592
WIRE 672 752 672 480
WIRE 672 912 672 832
WIRE 672 928 672 912
FLAG 832 672 0
FLAG -144 432 0
FLAG 112 112 0
FLAG -352 480 0
FLAG 672 912 0
FLAG 352 464 0
FLAG -16 608 0
FLAG 1792 192 0
FLAG 1664 496 0
FLAG 1856 560 0
FLAG 1392 400 0
FLAG 2384 608 0
FLAG 2336 352 0
FLAG 3056 96 0
SYMBOL voltage 832 576 R0
WINDOW 123 0 0 Left 0
WINDOW 39 0 0 Left 0
SYMATTR InstName V1
SYMATTR Value 30
SYMBOL Opamps\\opamp2 -16 192 R0
SYMATTR InstName U1
SYMATTR Value LM339
SYMBOL voltage -144 336 R0
WINDOW 123 0 0 Left 0
WINDOW 39 0 0 Left 0
SYMATTR InstName V2
SYMATTR Value 6
SYMBOL pnp 608 480 M180
SYMATTR InstName Q1
SYMATTR Value TIP32C
SYMBOL res 240 448 R180
WINDOW 0 36 76 Left 2
WINDOW 3 36 40 Left 2
SYMATTR InstName R1
SYMATTR Value 1k
SYMBOL npn 288 208 R0
SYMATTR InstName Q2
SYMATTR Value MJE340
SYMBOL res 464 368 R0
SYMATTR InstName R2
SYMATTR Value 2k2
SYMBOL res 592 208 R0
SYMATTR InstName R3
SYMATTR Value 100
SYMBOL voltage -352 384 R0
WINDOW 123 0 0 Left 0
WINDOW 39 0 0 Left 0
SYMATTR InstName V4
SYMATTR Value SINE(0 25 1k)
SYMBOL res 656 736 R0
SYMATTR InstName R4
SYMATTR Value 1k
SYMBOL voltage -16 512 R0
WINDOW 123 0 0 Left 0
WINDOW 39 0 0 Left 0
SYMATTR InstName V5
SYMATTR Value -30
SYMBOL npn 2096 288 R0
SYMATTR InstName Q3
SYMATTR Value TIP31C
SYMBOL Opamps\\opamp2 1664 272 R0
SYMATTR InstName U2
SYMATTR Value LM339
SYMBOL voltage 1392 304 R0
WINDOW 123 0 0 Left 0
WINDOW 39 0 0 Left 0
SYMATTR InstName V6
SYMATTR Value -9
SYMBOL res 1840 368 R0
SYMATTR InstName R5
SYMATTR Value 1k
SYMBOL voltage 1664 512 R180
WINDOW 0 24 96 Left 2
WINDOW 3 24 16 Left 2
WINDOW 123 0 0 Left 0
WINDOW 39 0 0 Left 0
SYMATTR InstName V7
SYMATTR Value 30
SYMBOL npn 1952 192 R0
SYMATTR InstName Q4
SYMATTR Value MJE340
SYMBOL res 2000 80 R0
SYMATTR InstName R6
SYMATTR Value 100
SYMBOL voltage 2384 512 R0
WINDOW 123 0 0 Left 0
WINDOW 39 0 0 Left 0
SYMATTR InstName V8
SYMATTR Value -30
SYMBOL res 2320 256 R0
SYMATTR InstName R7
SYMATTR Value 1k
SYMBOL voltage -16 176 R180
WINDOW 0 24 96 Left 2
WINDOW 3 24 16 Left 2
WINDOW 123 0 0 Left 0
WINDOW 39 0 0 Left 0
SYMATTR InstName V3
SYMATTR Value 0
TEXT -1280 -160 Left 2 !.lib Z:\\home\\matias\\Mati\\FIUBA\\Circuitos2\\TPSS\\circuitos2_proyecto\\simulaciones\\standard.bjt
TEXT -1280 -120 Left 2 !.inc standard.dio
TEXT -1280 -208 Left 2 !.four {freq} V(vout)
TEXT -1288 -264 Left 2 !.param freq 1k
TEXT -1280 -72 Left 2 !.lib LM339.sub
TEXT -1280 152 Left 2 !.tran 0 2m 0 1m
TEXT -1280 56 Left 2 !.OPTIONS plotwinsize=0
TEXT -1280 104 Left 2 !.OPTIONS numdgt=6
TEXT -1280 16 Left 2 !.OPTIONS temp=25
