Version 4
SHEET 1 3112 680
WIRE 480 -1376 96 -1376
WIRE 592 -1376 480 -1376
WIRE 928 -1376 592 -1376
WIRE 1136 -1376 928 -1376
WIRE 1664 -1376 1136 -1376
WIRE 1936 -1376 1664 -1376
WIRE 2016 -1376 1936 -1376
WIRE 96 -1344 96 -1376
WIRE 480 -1328 480 -1376
WIRE 1664 -1328 1664 -1376
WIRE 592 -1280 592 -1376
WIRE 1136 -1280 1136 -1376
WIRE 96 -1248 96 -1280
WIRE 928 -1232 928 -1376
WIRE 1296 -1232 1200 -1232
WIRE 1664 -1232 1664 -1248
WIRE 1664 -1232 1376 -1232
WIRE 480 -1184 480 -1248
WIRE 1664 -1184 1664 -1232
WIRE 592 -1136 592 -1216
WIRE 592 -1136 544 -1136
WIRE 640 -1136 592 -1136
WIRE 1136 -1136 1136 -1184
WIRE 1136 -1136 720 -1136
WIRE 1600 -1136 1136 -1136
WIRE 1136 -1088 1136 -1136
WIRE 2208 -1072 2080 -1072
WIRE 2208 -1024 2208 -1072
WIRE 1936 -1008 1936 -1376
WIRE 480 -992 480 -1088
WIRE 928 -992 928 -1168
WIRE 1136 -992 1136 -1008
WIRE 1136 -992 928 -992
WIRE 1136 -976 1136 -992
WIRE 2080 -912 2080 -1072
WIRE 1664 -896 1664 -1088
WIRE 2048 -896 1664 -896
WIRE 2272 -880 2112 -880
WIRE 2048 -864 1952 -864
WIRE 2080 -848 2080 -864
WIRE 2272 -832 2272 -880
WIRE 480 -800 480 -912
WIRE 480 -800 336 -800
WIRE 640 -800 480 -800
WIRE 2080 -800 2080 -848
WIRE 336 -784 336 -800
WIRE 640 -784 640 -800
WIRE 1952 -784 1952 -864
WIRE 2272 -736 2272 -752
WIRE 336 -656 336 -704
WIRE 368 -656 336 -656
WIRE 640 -656 640 -704
WIRE 640 -656 608 -656
WIRE 336 -624 336 -656
WIRE 368 -624 368 -656
WIRE 608 -624 608 -656
WIRE 640 -624 640 -656
WIRE -272 -576 -352 -576
WIRE -128 -576 -208 -576
WIRE 64 -576 -128 -576
WIRE 272 -576 64 -576
WIRE 304 -576 272 -576
WIRE 672 -576 656 -576
WIRE 704 -576 672 -576
WIRE 752 -576 704 -576
WIRE 1024 -576 752 -576
WIRE 1168 -576 1024 -576
WIRE 1664 -576 1664 -896
WIRE 1664 -576 1248 -576
WIRE 1840 -576 1664 -576
WIRE -352 -560 -352 -576
WIRE 1024 -560 1024 -576
WIRE 1840 -560 1840 -576
WIRE 64 -496 64 -576
WIRE 336 -496 336 -528
WIRE 368 -496 368 -528
WIRE 368 -496 336 -496
WIRE 608 -496 608 -528
WIRE 640 -496 640 -528
WIRE 640 -496 608 -496
WIRE 1024 -480 1024 -496
WIRE -352 -416 -352 -480
WIRE 64 -400 64 -416
WIRE 224 -400 64 -400
WIRE 448 -400 288 -400
WIRE 752 -400 752 -576
WIRE 752 -400 528 -400
WIRE 64 -384 64 -400
WIRE 1296 -352 976 -352
WIRE 1664 -352 1664 -576
WIRE 1664 -352 1360 -352
WIRE 1248 -320 1120 -320
WIRE -352 -272 -352 -336
WIRE 1120 -272 1120 -320
WIRE 1248 -256 1248 -320
WIRE 336 -224 336 -496
WIRE 976 -224 976 -352
WIRE 976 -224 336 -224
WIRE 1056 -224 976 -224
WIRE 64 -192 64 -304
WIRE 1664 -160 1664 -352
WIRE 640 -144 640 -496
WIRE 640 -144 512 -144
WIRE 2080 -128 1936 -128
WIRE 1120 -112 1120 -176
WIRE 1600 -112 1120 -112
WIRE 336 -96 336 -224
WIRE 640 -96 640 -144
WIRE 512 -48 512 -144
WIRE 512 -48 400 -48
WIRE 576 -48 512 -48
WIRE 1120 16 1120 -112
WIRE 336 48 336 0
WIRE 640 48 640 0
WIRE 1664 48 1664 -64
WIRE 112 80 112 64
WIRE 112 160 112 144
WIRE 336 160 336 128
WIRE 336 160 112 160
WIRE 640 160 640 128
WIRE 640 160 336 160
WIRE 1120 160 1120 96
WIRE 1120 160 640 160
WIRE 1664 160 1664 128
WIRE 1664 160 1120 160
WIRE 1936 160 1936 -128
WIRE 1936 160 1664 160
WIRE 2000 160 1936 160
FLAG 64 -192 0
FLAG -352 -272 0
FLAG -128 -576 entrada_pos
FLAG 112 64 0
FLAG 1136 -896 0
FLAG 96 -1248 0
FLAG 1248 -256 0
FLAG 1840 -480 0
FLAG 2016 -1296 0
FLAG 2000 80 0
FLAG 1024 -400 0
FLAG 1952 -704 0
FLAG 2208 -1024 0
FLAG 2080 -720 0
FLAG 2272 -656 0
SYMBOL pnp 704 -528 R180
WINDOW 0 -21 87 Left 2
WINDOW 3 -79 68 Left 2
SYMATTR InstName Q1
SYMATTR Value MPSA56
SYMBOL pnp 272 -528 M180
WINDOW 0 -20 87 Left 2
WINDOW 3 -80 68 Left 2
SYMATTR InstName Q2
SYMATTR Value MPSA56
SYMBOL res -368 -576 R0
SYMATTR InstName R1
SYMATTR Value 50
SYMBOL cap -208 -592 R90
WINDOW 0 0 32 VBottom 2
WINDOW 3 32 32 VTop 2
SYMATTR InstName C1
SYMATTR Value 47µ
SYMBOL npn 576 -96 R0
WINDOW 0 25 48 Left 2
SYMATTR InstName Q3
SYMATTR Value MPSA06
SYMBOL npn 400 -96 M0
SYMATTR InstName Q4
SYMATTR Value MPSA06
SYMBOL res 320 -800 R0
SYMATTR InstName R2
SYMATTR Value 100
SYMBOL res 624 -800 R0
SYMATTR InstName R3
SYMATTR Value 100
SYMBOL res 320 32 R0
SYMATTR InstName R4
SYMATTR Value 68
SYMBOL res 624 32 R0
SYMATTR InstName R5
SYMATTR Value 68
SYMBOL cap 96 80 R0
SYMATTR InstName C2
SYMATTR Value 100n
SYMBOL pnp 672 -528 R180
WINDOW 0 -19 146 Left 2
WINDOW 3 25 48 Left 2
SYMATTR InstName Q5
SYMATTR Value MPSA56
SYMBOL pnp 304 -528 M180
WINDOW 0 -22 159 Left 2
WINDOW 3 36 57 Left 2
SYMATTR InstName Q6
SYMATTR Value MPSA56
SYMBOL res 464 -1344 R0
SYMATTR InstName R8
SYMATTR Value 100
SYMBOL pnp 544 -1088 R180
SYMATTR InstName Q7
SYMATTR Value MPSA56
SYMBOL res 1120 -1104 R0
SYMATTR InstName R9
SYMATTR Value 10k
SYMBOL res 464 -1008 R0
WINDOW 3 39 83 Left 2
SYMATTR InstName R12
SYMATTR Value 2k2
SYMBOL cap 576 -1280 R0
SYMATTR InstName C4
SYMATTR Value 47µ
SYMBOL res 1120 -992 R0
SYMATTR InstName R13
SYMATTR Value 10k
SYMBOL cap 912 -1232 R0
SYMATTR InstName C5
SYMATTR Value 47µ
SYMBOL cap 80 -1344 R0
SYMATTR InstName C6
SYMATTR Value 100n
SYMBOL res 736 -1152 R90
WINDOW 0 0 56 VBottom 2
WINDOW 3 32 56 VTop 2
SYMATTR InstName R14
SYMATTR Value 2.2k
SYMBOL res 1648 32 R0
SYMATTR InstName R10
SYMATTR Value 10
SYMBOL npn 1600 -160 R0
SYMATTR InstName Q8
SYMATTR Value MPSA06
SYMBOL npn 1056 -272 R0
SYMATTR InstName Q9
SYMATTR Value MPSA06
SYMBOL res 1104 0 R0
SYMATTR InstName R11
SYMATTR Value 2.2k
SYMBOL res 1648 -1344 R0
SYMATTR InstName R15
SYMATTR Value 68
SYMBOL pnp 1600 -1088 M180
SYMATTR InstName Q10
SYMATTR Value MPSA56
SYMBOL res 1824 -576 R0
SYMATTR InstName R16
SYMATTR Value 1Meg
SYMBOL pnp 1200 -1184 R180
WINDOW 0 50 32 Left 2
WINDOW 3 45 59 Left 2
SYMATTR InstName Q11
SYMATTR Value MPSA56
SYMBOL res 1392 -1248 R90
WINDOW 0 0 56 VBottom 2
WINDOW 3 32 56 VTop 2
SYMATTR InstName R17
SYMATTR Value 2.2k
SYMBOL voltage 2016 -1392 R0
WINDOW 123 0 0 Left 0
WINDOW 39 0 0 Left 0
SYMATTR InstName V1
SYMATTR Value 30
SYMBOL voltage 2000 64 R0
WINDOW 0 24 96 Left 2
WINDOW 3 24 16 Left 2
WINDOW 123 0 0 Left 0
WINDOW 39 0 0 Left 0
SYMATTR InstName V2
SYMATTR Value 30
SYMBOL res 1264 -592 R90
WINDOW 0 0 56 VBottom 2
WINDOW 3 32 56 VTop 2
SYMATTR InstName R18
SYMATTR Value 2k2
SYMBOL res 1040 -384 R180
WINDOW 0 36 76 Left 2
WINDOW 3 36 40 Left 2
SYMATTR InstName R19
SYMATTR Value 100
SYMBOL cap 1008 -560 R0
SYMATTR InstName C7
SYMATTR Value 1000µ
SYMBOL voltage -352 -432 R0
WINDOW 123 0 0 Left 0
WINDOW 39 0 0 Left 0
SYMATTR InstName V3
SYMATTR Value SINE(0 100m {freq})
SYMBOL cap 1360 -368 R90
WINDOW 0 0 32 VBottom 2
WINDOW 3 32 32 VTop 2
SYMATTR InstName C3
SYMATTR Value 100p
SYMBOL res 48 -512 R0
SYMATTR InstName R6
SYMATTR Value 1k1
SYMBOL res 48 -400 R0
SYMATTR InstName R7
SYMATTR Value 1k1
SYMBOL cap 288 -416 R90
WINDOW 0 0 32 VBottom 2
WINDOW 3 32 32 VTop 2
SYMATTR InstName C8
SYMATTR Value 47µ
SYMBOL res 544 -416 R90
WINDOW 0 0 56 VBottom 2
WINDOW 3 32 56 VTop 2
SYMATTR InstName R123
SYMATTR Value 100
SYMBOL Opamps\\opamp2 2080 -944 R0
SYMATTR InstName U1
SYMATTR Value LM339
SYMBOL voltage 1952 -800 R0
WINDOW 123 0 0 Left 0
WINDOW 39 0 0 Left 0
SYMATTR InstName V4
SYMATTR Value 1
SYMBOL res 2256 -848 R0
SYMATTR InstName R20
SYMATTR Value 1k
SYMBOL voltage 2080 -704 R180
WINDOW 0 24 96 Left 2
WINDOW 3 24 16 Left 2
WINDOW 123 0 0 Left 0
WINDOW 39 0 0 Left 0
SYMATTR InstName V6
SYMATTR Value 15
SYMBOL voltage 2272 -752 R0
WINDOW 123 0 0 Left 0
WINDOW 39 0 0 Left 0
SYMATTR InstName V5
SYMATTR Value 10
TEXT 168 -1640 Left 2 !.lib Z:\\home\\matias\\Mati\\FIUBA\\Circuitos2\\TPSS\\circuitos2_proyecto\\simulaciones\\standard.bjt
TEXT -1120 -1184 Left 2 !.tran 0 110m 100m 10u
TEXT 168 -1600 Left 2 !.inc standard.dio
TEXT 168 -1688 Left 2 !.four {freq} V(n014)
TEXT 160 -1744 Left 2 !.param freq 1k
TEXT -1208 -1768 Left 2 ;Input pairs before and after constant-gm\ndegeneration, showing how to double stage current while\nkeeping transconductance constant; distortion is reduced\nby about ten times.
TEXT -1216 -1600 Left 2 ;Not all benefit when we add emitter-\ndegeneration resistors. The extra resistances will\ngenerate Johnson noise, increasing the total noise from\nthe input stage.
TEXT -1016 -1856 Left 2 ;Etapa de entrada
TEXT -1120 -1280 Left 2 !.OPTIONS plotwinsize=0
TEXT -1120 -1232 Left 2 !.OPTIONS numdgt=12
TEXT -1120 -1320 Left 2 !.OPTIONS temp=25
TEXT 168 -1552 Left 2 !.lib LM339.sub
