Version 4
SHEET 1 2500 680
WIRE 480 -1376 96 -1376
WIRE 592 -1376 480 -1376
WIRE 768 -1376 592 -1376
WIRE 880 -1376 768 -1376
WIRE 1264 -1376 880 -1376
WIRE 1616 -1376 1264 -1376
WIRE 96 -1344 96 -1376
WIRE 480 -1328 480 -1376
WIRE 1264 -1328 1264 -1376
WIRE 592 -1280 592 -1376
WIRE 880 -1280 880 -1376
WIRE 96 -1248 96 -1280
WIRE 768 -1232 768 -1376
WIRE 1040 -1232 944 -1232
WIRE 1264 -1232 1264 -1248
WIRE 1264 -1232 1120 -1232
WIRE 480 -1184 480 -1248
WIRE 1264 -1184 1264 -1232
WIRE 544 -1136 528 -1136
WIRE 592 -1136 592 -1216
WIRE 592 -1136 544 -1136
WIRE 640 -1136 592 -1136
WIRE 880 -1136 880 -1184
WIRE 880 -1136 720 -1136
WIRE 1200 -1136 880 -1136
WIRE 880 -1088 880 -1136
WIRE 480 -992 480 -1088
WIRE 768 -992 768 -1168
WIRE 880 -992 880 -1008
WIRE 880 -992 768 -992
WIRE 880 -976 880 -992
WIRE 480 -800 480 -912
WIRE 480 -800 336 -800
WIRE 640 -800 480 -800
WIRE 336 -784 336 -800
WIRE 640 -784 640 -800
WIRE 336 -656 336 -704
WIRE 368 -656 336 -656
WIRE 640 -656 640 -704
WIRE 640 -656 608 -656
WIRE 336 -624 336 -656
WIRE 368 -624 368 -656
WIRE 608 -624 608 -656
WIRE 640 -624 640 -656
WIRE -272 -576 -352 -576
WIRE -128 -576 -208 -576
WIRE 64 -576 -128 -576
WIRE 272 -576 64 -576
WIRE 304 -576 272 -576
WIRE 672 -576 656 -576
WIRE 704 -576 672 -576
WIRE 752 -576 704 -576
WIRE 912 -576 752 -576
WIRE 1056 -576 912 -576
WIRE 1264 -576 1264 -1088
WIRE 1264 -576 1136 -576
WIRE 1440 -576 1264 -576
WIRE -352 -560 -352 -576
WIRE 912 -560 912 -576
WIRE 1440 -560 1440 -576
WIRE 64 -496 64 -576
WIRE 336 -496 336 -528
WIRE 368 -496 368 -528
WIRE 368 -496 336 -496
WIRE 608 -496 608 -528
WIRE 640 -496 640 -528
WIRE 640 -496 608 -496
WIRE 912 -480 912 -496
WIRE -352 -416 -352 -480
WIRE 64 -400 64 -416
WIRE 224 -400 64 -400
WIRE 448 -400 288 -400
WIRE 752 -400 752 -576
WIRE 752 -400 528 -400
WIRE 64 -384 64 -400
WIRE 1120 -352 800 -352
WIRE 1264 -352 1264 -576
WIRE 1264 -352 1184 -352
WIRE 1072 -320 944 -320
WIRE -352 -272 -352 -336
WIRE 944 -272 944 -320
WIRE 1072 -256 1072 -320
WIRE 336 -224 336 -496
WIRE 800 -224 800 -352
WIRE 800 -224 336 -224
WIRE 880 -224 800 -224
WIRE 64 -192 64 -304
WIRE 1264 -160 1264 -352
WIRE 640 -144 640 -496
WIRE 640 -144 512 -144
WIRE 944 -112 944 -176
WIRE 1200 -112 944 -112
WIRE 336 -96 336 -224
WIRE 640 -96 640 -144
WIRE 512 -48 512 -144
WIRE 512 -48 400 -48
WIRE 576 -48 512 -48
WIRE 944 16 944 -112
WIRE 336 48 336 0
WIRE 640 48 640 0
WIRE 1264 48 1264 -64
WIRE 112 80 112 64
WIRE 112 160 112 144
WIRE 336 160 336 128
WIRE 336 160 112 160
WIRE 640 160 640 128
WIRE 640 160 336 160
WIRE 944 160 944 96
WIRE 944 160 640 160
WIRE 1264 160 1264 128
WIRE 1264 160 944 160
WIRE 1600 160 1264 160
FLAG 64 -192 0
FLAG -352 -272 0
FLAG -128 -576 entrada_pos
FLAG 112 64 0
FLAG 880 -896 0
FLAG 96 -1248 0
FLAG 1072 -256 0
FLAG 1440 -480 0
FLAG 1616 -1296 0
FLAG 1600 80 0
FLAG 912 -400 0
SYMBOL pnp 704 -528 R180
WINDOW 0 -21 87 Left 2
WINDOW 3 -79 68 Left 2
SYMATTR InstName Q1
SYMATTR Value MPSA56
SYMBOL pnp 272 -528 M180
WINDOW 0 -20 87 Left 2
WINDOW 3 -80 68 Left 2
SYMATTR InstName Q2
SYMATTR Value MPSA56
SYMBOL res -368 -576 R0
SYMATTR InstName R1
SYMATTR Value 50
SYMBOL cap -208 -592 R90
WINDOW 0 0 32 VBottom 2
WINDOW 3 32 32 VTop 2
SYMATTR InstName C1
SYMATTR Value 47µ
SYMBOL npn 576 -96 R0
WINDOW 0 25 48 Left 2
SYMATTR InstName Q3
SYMATTR Value MPSA06
SYMBOL npn 400 -96 M0
SYMATTR InstName Q4
SYMATTR Value MPSA06
SYMBOL res 320 -800 R0
SYMATTR InstName R2
SYMATTR Value 100
SYMBOL res 624 -800 R0
SYMATTR InstName R3
SYMATTR Value 100
SYMBOL res 320 32 R0
SYMATTR InstName R4
SYMATTR Value 68
SYMBOL res 624 32 R0
SYMATTR InstName R5
SYMATTR Value 68
SYMBOL cap 96 80 R0
SYMATTR InstName C2
SYMATTR Value 100n
SYMBOL pnp 672 -528 R180
WINDOW 0 -19 146 Left 2
WINDOW 3 25 48 Left 2
SYMATTR InstName Q5
SYMATTR Value MPSA56
SYMBOL pnp 304 -528 M180
WINDOW 0 -22 159 Left 2
WINDOW 3 36 57 Left 2
SYMATTR InstName Q6
SYMATTR Value MPSA56
SYMBOL res 464 -1344 R0
SYMATTR InstName R8
SYMATTR Value 100
SYMBOL pnp 544 -1088 R180
SYMATTR InstName Q7
SYMATTR Value MPSA56
SYMBOL res 864 -1104 R0
SYMATTR InstName R9
SYMATTR Value 10k
SYMBOL res 464 -1008 R0
SYMATTR InstName R12
SYMATTR Value 2.2k
SYMBOL cap 576 -1280 R0
SYMATTR InstName C4
SYMATTR Value 47µ
SYMBOL res 864 -992 R0
SYMATTR InstName R13
SYMATTR Value 10k
SYMBOL cap 752 -1232 R0
SYMATTR InstName C5
SYMATTR Value 47µ
SYMBOL cap 80 -1344 R0
SYMATTR InstName C6
SYMATTR Value 100n
SYMBOL res 736 -1152 R90
WINDOW 0 0 56 VBottom 2
WINDOW 3 32 56 VTop 2
SYMATTR InstName R14
SYMATTR Value 2.2k
SYMBOL res 1248 32 R0
SYMATTR InstName R10
SYMATTR Value 10
SYMBOL npn 1200 -160 R0
SYMATTR InstName Q8
SYMATTR Value MPSA06
SYMBOL npn 880 -272 R0
SYMATTR InstName Q9
SYMATTR Value MPSA06
SYMBOL res 928 0 R0
SYMATTR InstName R11
SYMATTR Value 2.2k
SYMBOL res 1248 -1344 R0
SYMATTR InstName R15
SYMATTR Value 68
SYMBOL pnp 1200 -1088 M180
SYMATTR InstName Q10
SYMATTR Value MPSA56
SYMBOL res 1424 -576 R0
SYMATTR InstName R16
SYMATTR Value 10k
SYMBOL pnp 944 -1184 R180
WINDOW 0 50 32 Left 2
WINDOW 3 45 59 Left 2
SYMATTR InstName Q11
SYMATTR Value MPSA56
SYMBOL res 1136 -1248 R90
WINDOW 0 0 56 VBottom 2
WINDOW 3 32 56 VTop 2
SYMATTR InstName R17
SYMATTR Value 2.2k
SYMBOL voltage 1616 -1392 R0
WINDOW 123 0 0 Left 0
WINDOW 39 0 0 Left 0
SYMATTR InstName V1
SYMATTR Value 30
SYMBOL voltage 1600 176 R180
WINDOW 0 24 96 Left 2
WINDOW 3 24 16 Left 2
WINDOW 123 0 0 Left 0
WINDOW 39 0 0 Left 0
SYMATTR InstName V2
SYMATTR Value -30
SYMBOL res 1152 -592 R90
WINDOW 0 0 56 VBottom 2
WINDOW 3 32 56 VTop 2
SYMATTR InstName R18
SYMATTR Value 2k2
SYMBOL res 928 -384 R180
WINDOW 0 36 76 Left 2
WINDOW 3 36 40 Left 2
SYMATTR InstName R19
SYMATTR Value 100
SYMBOL cap 896 -560 R0
SYMATTR InstName C7
SYMATTR Value 1000µ
SYMBOL voltage -352 -432 R0
WINDOW 123 0 0 Left 0
WINDOW 39 0 0 Left 0
SYMATTR InstName V3
SYMATTR Value SINE(0 10m {freq})
SYMBOL cap 1184 -368 R90
WINDOW 0 0 32 VBottom 2
WINDOW 3 32 32 VTop 2
SYMATTR InstName C3
SYMATTR Value 100p
SYMBOL res 48 -512 R0
SYMATTR InstName R6
SYMATTR Value 1k1
SYMBOL res 48 -400 R0
SYMATTR InstName R7
SYMATTR Value 1k1
SYMBOL cap 288 -416 R90
WINDOW 0 0 32 VBottom 2
WINDOW 3 32 32 VTop 2
SYMATTR InstName C8
SYMATTR Value 47µ
SYMBOL res 544 -416 R90
WINDOW 0 0 56 VBottom 2
WINDOW 3 32 56 VTop 2
SYMATTR InstName R123
SYMATTR Value 100
TEXT 168 -1640 Left 2 !.lib Z:\\home\\matias\\Mati\\FIUBA\\Circuitos2\\TPSS\\circuitos2_proyecto\\simulaciones\\standard.bjt
TEXT 174 -1548 Left 2 !.tran 10m
TEXT 168 -1600 Left 2 !.inc standard.dio
TEXT 168 -1688 Left 2 !.four {freq} V(n014)
TEXT 160 -1744 Left 2 !.param freq 1k
