Version 4
SHEET 1 2628 680
WIRE 640 -1056 240 -1056
WIRE 992 -1056 640 -1056
WIRE -1456 -688 -1456 -720
WIRE -1456 -688 -1568 -688
WIRE -1344 -688 -1456 -688
WIRE -960 -688 -960 -720
WIRE -960 -688 -1040 -688
WIRE -880 -688 -960 -688
WIRE -1040 -656 -1040 -688
WIRE 640 -656 640 -1056
WIRE 640 -656 480 -656
WIRE 800 -656 640 -656
WIRE -880 -608 -880 -688
WIRE 240 -608 240 -1056
WIRE -2016 -576 -2032 -576
WIRE -1888 -576 -1904 -576
WIRE -1568 -576 -1568 -688
WIRE -1344 -576 -1344 -688
WIRE -1040 -560 -1040 -576
WIRE -944 -560 -1040 -560
WIRE 176 -560 -688 -560
WIRE -2016 -544 -2016 -576
WIRE -1888 -544 -1888 -576
WIRE 480 -544 480 -656
WIRE -1472 -528 -1504 -528
WIRE -1408 -528 -1472 -528
WIRE 240 -496 240 -512
WIRE 416 -496 240 -496
WIRE -1472 -448 -1472 -528
WIRE -1344 -448 -1344 -480
WIRE -1344 -448 -1472 -448
WIRE -1040 -448 -1040 -560
WIRE 240 -432 240 -496
WIRE 480 -432 480 -448
WIRE -1568 -400 -1568 -480
WIRE -1152 -400 -1568 -400
WIRE -1104 -400 -1152 -400
WIRE -688 -368 -688 -560
WIRE -688 -368 -752 -368
WIRE -1040 -336 -1040 -352
WIRE 480 -336 480 -352
WIRE 480 -336 144 -336
WIRE 912 -336 480 -336
WIRE 480 -320 480 -336
WIRE -688 -304 -688 -368
WIRE -688 -304 -704 -304
WIRE -608 -304 -688 -304
WIRE 240 -304 240 -352
WIRE -1568 -288 -1568 -400
WIRE -1344 -288 -1344 -448
WIRE -1152 -272 -1152 -400
WIRE -1056 -272 -1152 -272
WIRE -880 -272 -880 -512
WIRE -880 -272 -992 -272
WIRE -752 -272 -752 -368
WIRE -752 -272 -880 -272
WIRE 912 -272 912 -336
WIRE 144 -256 144 -336
WIRE -1664 -240 -1728 -240
WIRE -1632 -240 -1664 -240
WIRE -1216 -240 -1280 -240
WIRE -608 -240 -608 -304
WIRE 480 -224 480 -240
WIRE -1216 -208 -1216 -240
WIRE -1104 -208 -1216 -208
WIRE -1216 -192 -1216 -208
WIRE -704 -192 -704 -224
WIRE -672 -192 -704 -192
WIRE -1568 -176 -1568 -192
WIRE -1344 -176 -1344 -192
WIRE -1104 -176 -1104 -208
WIRE -1088 -176 -1104 -176
WIRE 240 -176 240 -224
WIRE 416 -176 240 -176
WIRE -704 -160 -704 -192
WIRE 240 -160 240 -176
WIRE -1728 -144 -1728 -160
WIRE 912 -128 912 -192
WIRE -1104 -112 -1120 -112
WIRE -608 -112 -608 -144
WIRE -544 -112 -608 -112
WIRE 176 -112 -544 -112
WIRE -1104 -96 -1104 -112
WIRE -1568 -80 -1568 -96
WIRE -1456 -80 -1568 -80
WIRE -1344 -80 -1344 -96
WIRE -1344 -80 -1456 -80
WIRE -608 -80 -608 -112
WIRE -608 -80 -704 -80
WIRE -1456 -32 -1456 -80
WIRE -544 -32 -544 -112
WIRE -544 -32 -880 -32
WIRE 480 0 480 -128
WIRE 656 0 480 0
WIRE 736 0 656 0
WIRE -1296 16 -1392 16
WIRE -1104 16 -1104 -16
WIRE -1104 16 -1296 16
WIRE -944 16 -1104 16
WIRE -1296 64 -1296 16
WIRE -1456 112 -1456 64
WIRE -1360 112 -1456 112
WIRE -880 128 -880 64
WIRE -1456 144 -1456 112
WIRE -1456 240 -1456 224
WIRE -1456 240 -1680 240
WIRE -1296 240 -1296 160
WIRE -1296 240 -1456 240
WIRE -1120 240 -1296 240
WIRE -880 240 -880 208
WIRE -880 240 -1120 240
WIRE -720 240 -880 240
WIRE -1120 272 -1120 240
WIRE 240 480 240 -64
WIRE 656 480 656 0
WIRE 656 480 240 480
WIRE 1040 480 656 480
FLAG -1040 -336 0
FLAG -1120 272 -V
FLAG -1104 -112 +V
FLAG -960 -720 +V
FLAG -1456 -720 +V
FLAG -2016 -464 0
FLAG -1888 -464 0
FLAG -2032 -576 +V
FLAG -1904 -576 -V
FLAG -1728 -144 0
FLAG -1216 -48 0
FLAG -1664 -240 in
FLAG -1008 -176 real
FLAG 992 -976 0
FLAG 1040 400 0
FLAG 912 -128 0
FLAG 912 -336 vout
FLAG 144 -256 real
SYMBOL npn -1632 -288 R0
SYMATTR InstName Q16
SYMATTR Value BC547B
SYMBOL pnp -1504 -480 R180
SYMATTR InstName Q18
SYMATTR Value BC557B
SYMBOL res -1584 -192 R0
SYMATTR InstName R7
SYMATTR Value 220
SYMBOL res -1360 -192 R0
SYMATTR InstName R8
SYMATTR Value 220
SYMBOL res -1472 128 R0
SYMATTR InstName R9
SYMATTR Value 100
SYMBOL res -1120 -112 R0
SYMATTR InstName R10
SYMATTR Value 47k
SYMBOL res -896 112 R0
SYMATTR InstName R11
SYMATTR Value 100
SYMBOL res -1056 -672 R0
SYMATTR InstName R12
SYMATTR Value 1k
SYMBOL voltage -2016 -560 R0
WINDOW 123 0 0 Left 2
WINDOW 39 0 0 Left 2
SYMATTR InstName V1
SYMATTR Value 30
SYMBOL voltage -1888 -448 R180
WINDOW 0 24 96 Left 2
WINDOW 3 24 16 Left 2
WINDOW 123 0 0 Left 2
WINDOW 39 0 0 Left 2
SYMATTR InstName V2
SYMATTR Value 30
SYMBOL npn -1280 -288 M0
SYMATTR InstName Q17
SYMATTR Value BC547B
SYMBOL npn -1392 -32 M0
SYMATTR InstName Q20
SYMATTR Value BC547B
SYMBOL npn -1360 64 R0
SYMATTR InstName Q21
SYMATTR Value BC547B
SYMBOL npn -944 -32 R0
SYMATTR InstName Q24
SYMATTR Value BC547B
SYMBOL pnp -1408 -480 M180
SYMATTR InstName Q19
SYMATTR Value BC557B
SYMBOL pnp -1104 -352 M180
SYMATTR InstName Q22
SYMATTR Value BC557B
SYMBOL pnp -944 -512 M180
SYMATTR InstName Q23
SYMATTR Value BC557B
SYMBOL voltage -1728 -256 R0
WINDOW 3 -261 59 Left 2
WINDOW 123 0 0 Left 2
WINDOW 39 0 0 Left 2
SYMATTR Value SINE(0 300m {freq})
SYMATTR InstName V3
SYMBOL res -1232 -208 R0
SYMATTR InstName R1
SYMATTR Value 60
SYMBOL res -992 -192 R90
WINDOW 0 0 56 VBottom 2
WINDOW 3 32 56 VTop 2
SYMATTR InstName R2
SYMATTR Value 5k
SYMBOL cap -992 -288 R90
WINDOW 0 0 32 VBottom 2
WINDOW 3 32 32 VTop 2
SYMATTR InstName C1
SYMATTR Value 100p
SYMBOL cap -1232 -112 R0
SYMATTR InstName C2
SYMATTR Value 1000µ
SYMBOL res -720 -176 R0
SYMATTR InstName R3
SYMATTR Value 1k4
SYMBOL res -720 -320 R0
SYMATTR InstName R4
SYMATTR Value 3k3
SYMBOL npn -672 -240 R0
SYMATTR InstName Q1
SYMATTR Value BC547B
SYMBOL voltage 992 -1072 R0
WINDOW 123 0 0 Left 0
WINDOW 39 0 0 Left 0
SYMATTR InstName V4
SYMATTR Value 30
SYMBOL voltage 1040 384 R0
WINDOW 0 24 96 Left 2
WINDOW 3 24 16 Left 2
WINDOW 123 0 0 Left 0
WINDOW 39 0 0 Left 0
SYMATTR InstName V5
SYMATTR Value 30
SYMBOL npn 176 -608 R0
SYMATTR InstName Q4
SYMATTR Value MJE340
SYMBOL npn 416 -544 R0
SYMATTR InstName Q5
SYMATTR Value TIP31C
SYMBOL pnp 416 -128 M180
SYMATTR InstName Q6
SYMATTR Value TIP32C
SYMBOL pnp 176 -64 M180
SYMATTR InstName Q7
SYMATTR Value MJE350
SYMBOL res 224 -448 R0
SYMATTR InstName R14
SYMATTR Value 100
SYMBOL res 224 -320 R0
SYMATTR InstName R15
SYMATTR Value 100
SYMBOL res 464 -448 R0
SYMATTR InstName R16
SYMATTR Value .47
SYMBOL res 464 -336 R0
SYMATTR InstName R17
SYMATTR Value .47
SYMBOL res 896 -288 R0
SYMATTR InstName R18
SYMATTR Value 8
TEXT -2112 264 Left 2 ;Las Rs de emisor son bastante buenas, me reducen mucho la distorsion de la etapa
TEXT -1336 304 Left 2 ;p.141 D-S
TEXT -704 240 Left 2 ;-V
TEXT -1872 32 Left 2 !.tran 0 23m 20m 1u
TEXT -1872 -32 Left 2 !.four {freq} V(out)
TEXT -2136 -48 Left 2 !.lib BC548B.LIB\n.lib BC558B.LIB\n.lib BD135.LIB\n.inc BD136.lib\n.lib TIP41.lib
TEXT -1896 -80 Left 2 !;step param freq list 1k 20
TEXT -1864 -8 Left 2 !.param freq=1k
TEXT -1912 -824 Left 2 !.inc standard.dio
TEXT -1912 -776 Left 2 !.lib LM339.sub
TEXT -1456 -912 Left 2 !.lib Z:\\home\\matias\\Mati\\FIUBA\\Circuitos2\\TPSS\\circuitos2_proyecto\\simulaciones\\standard.bjt
