Version 4
SHEET 1 2628 680
WIRE -336 -896 -416 -896
WIRE -176 -896 -336 -896
WIRE 32 -896 -176 -896
WIRE 32 -832 32 -896
WIRE 32 -704 32 -768
WIRE -1456 -688 -1456 -720
WIRE -1456 -688 -1568 -688
WIRE -1344 -688 -1456 -688
WIRE -960 -688 -960 -720
WIRE -960 -688 -1040 -688
WIRE -880 -688 -960 -688
WIRE -416 -688 -416 -896
WIRE -1040 -656 -1040 -688
WIRE -480 -640 -688 -640
WIRE -880 -608 -880 -688
WIRE -176 -608 -176 -896
WIRE -2016 -576 -2032 -576
WIRE -1888 -576 -1904 -576
WIRE -1568 -576 -1568 -688
WIRE -1344 -576 -1344 -688
WIRE -1040 -560 -1040 -576
WIRE -944 -560 -1040 -560
WIRE -416 -560 -416 -592
WIRE -240 -560 -416 -560
WIRE -2016 -544 -2016 -576
WIRE -1888 -544 -1888 -576
WIRE -1472 -528 -1504 -528
WIRE -1408 -528 -1472 -528
WIRE -416 -496 -416 -560
WIRE -176 -464 -176 -512
WIRE -1472 -448 -1472 -528
WIRE -1344 -448 -1344 -480
WIRE -1344 -448 -1472 -448
WIRE -1040 -448 -1040 -560
WIRE -1568 -400 -1568 -480
WIRE -1152 -400 -1568 -400
WIRE -1104 -400 -1152 -400
WIRE -688 -368 -688 -640
WIRE -688 -368 -752 -368
WIRE -416 -368 -416 -416
WIRE -176 -368 -176 -384
WIRE -176 -368 -416 -368
WIRE 16 -368 -176 -368
WIRE 64 -368 16 -368
WIRE -1040 -336 -1040 -352
WIRE -416 -320 -416 -368
WIRE -416 -320 -528 -320
WIRE -688 -304 -688 -368
WIRE -688 -304 -704 -304
WIRE -608 -304 -688 -304
WIRE -1568 -288 -1568 -400
WIRE -1344 -288 -1344 -448
WIRE -1152 -272 -1152 -400
WIRE -1056 -272 -1152 -272
WIRE -880 -272 -880 -512
WIRE -880 -272 -992 -272
WIRE -752 -272 -752 -368
WIRE -752 -272 -880 -272
WIRE -176 -272 -176 -368
WIRE 64 -272 64 -288
WIRE -1664 -240 -1728 -240
WIRE -1632 -240 -1664 -240
WIRE -1216 -240 -1280 -240
WIRE -608 -240 -608 -304
WIRE -1216 -208 -1216 -240
WIRE -1104 -208 -1216 -208
WIRE -1216 -192 -1216 -208
WIRE -704 -192 -704 -224
WIRE -672 -192 -704 -192
WIRE -1568 -176 -1568 -192
WIRE -1344 -176 -1344 -192
WIRE -1104 -176 -1104 -208
WIRE -1088 -176 -1104 -176
WIRE -176 -176 -176 -192
WIRE -176 -176 -384 -176
WIRE -704 -160 -704 -192
WIRE -384 -160 -384 -176
WIRE -1728 -144 -1728 -160
WIRE -1104 -112 -1120 -112
WIRE -608 -112 -608 -144
WIRE -544 -112 -608 -112
WIRE -448 -112 -544 -112
WIRE -1104 -96 -1104 -112
WIRE -1568 -80 -1568 -96
WIRE -1456 -80 -1568 -80
WIRE -1344 -80 -1344 -96
WIRE -1344 -80 -1456 -80
WIRE -608 -80 -608 -112
WIRE -608 -80 -704 -80
WIRE -176 -64 -176 -176
WIRE -1456 -32 -1456 -80
WIRE -544 -32 -544 -112
WIRE -544 -32 -880 -32
WIRE -384 -16 -384 -64
WIRE -240 -16 -384 -16
WIRE -1296 16 -1392 16
WIRE -1104 16 -1104 -16
WIRE -1104 16 -1296 16
WIRE -944 16 -1104 16
WIRE -1296 64 -1296 16
WIRE -384 80 -384 -16
WIRE -1456 112 -1456 64
WIRE -1360 112 -1456 112
WIRE 16 112 16 16
WIRE -880 128 -880 64
WIRE -1456 144 -1456 112
WIRE -1456 240 -1456 224
WIRE -1456 240 -1680 240
WIRE -1296 240 -1296 160
WIRE -1296 240 -1456 240
WIRE -1120 240 -1296 240
WIRE -880 240 -880 208
WIRE -880 240 -1120 240
WIRE -720 240 -880 240
WIRE -384 240 -384 160
WIRE -176 240 -176 32
WIRE -176 240 -384 240
WIRE -32 240 -176 240
WIRE 16 240 16 176
WIRE 16 240 -32 240
WIRE -1120 272 -1120 240
FLAG -1040 -336 0
FLAG -1120 272 -V
FLAG -1104 -112 +V
FLAG -960 -720 +V
FLAG -1456 -720 +V
FLAG -2016 -464 0
FLAG -1888 -464 0
FLAG -2032 -576 +V
FLAG -1904 -576 -V
FLAG -1728 -144 0
FLAG -1216 -48 0
FLAG -1664 -240 in
FLAG 32 -704 0
FLAG -1008 -176 real
FLAG -528 -320 real
FLAG 16 16 0
FLAG -32 240 -V
FLAG -336 -896 +V
FLAG 64 -272 0
FLAG 16 -368 out
SYMBOL npn -1632 -288 R0
SYMATTR InstName Q16
SYMATTR Value BC547B
SYMBOL pnp -1504 -480 R180
SYMATTR InstName Q18
SYMATTR Value BC557B
SYMBOL res -1584 -192 R0
SYMATTR InstName R7
SYMATTR Value 220
SYMBOL res -1360 -192 R0
SYMATTR InstName R8
SYMATTR Value 220
SYMBOL res -1472 128 R0
SYMATTR InstName R9
SYMATTR Value 100
SYMBOL res -1120 -112 R0
SYMATTR InstName R10
SYMATTR Value 47k
SYMBOL res -896 112 R0
SYMATTR InstName R11
SYMATTR Value 100
SYMBOL res -1056 -672 R0
SYMATTR InstName R12
SYMATTR Value 1k
SYMBOL voltage -2016 -560 R0
WINDOW 123 0 0 Left 2
WINDOW 39 0 0 Left 2
SYMATTR InstName V1
SYMATTR Value 30
SYMBOL voltage -1888 -448 R180
WINDOW 0 24 96 Left 2
WINDOW 3 24 16 Left 2
WINDOW 123 0 0 Left 2
WINDOW 39 0 0 Left 2
SYMATTR InstName V2
SYMATTR Value 30
SYMBOL npn -1280 -288 M0
SYMATTR InstName Q17
SYMATTR Value BC547B
SYMBOL npn -1392 -32 M0
SYMATTR InstName Q20
SYMATTR Value BC547B
SYMBOL npn -1360 64 R0
SYMATTR InstName Q21
SYMATTR Value BC547B
SYMBOL npn -944 -32 R0
SYMATTR InstName Q24
SYMATTR Value BC547B
SYMBOL pnp -1408 -480 M180
SYMATTR InstName Q19
SYMATTR Value BC557B
SYMBOL pnp -1104 -352 M180
SYMATTR InstName Q22
SYMATTR Value BC557B
SYMBOL pnp -944 -512 M180
SYMATTR InstName Q23
SYMATTR Value BC557B
SYMBOL voltage -1728 -256 R0
WINDOW 3 -261 59 Left 2
WINDOW 123 0 0 Left 2
WINDOW 39 0 0 Left 2
SYMATTR Value SINE(0 300m {freq})
SYMATTR InstName V3
SYMBOL res -1232 -208 R0
SYMATTR InstName R1
SYMATTR Value 60
SYMBOL res -992 -192 R90
WINDOW 0 0 56 VBottom 2
WINDOW 3 32 56 VTop 2
SYMATTR InstName R2
SYMATTR Value 5k
SYMBOL cap -992 -288 R90
WINDOW 0 0 32 VBottom 2
WINDOW 3 32 32 VTop 2
SYMATTR InstName C1
SYMATTR Value 100p
SYMBOL cap -1232 -112 R0
SYMATTR InstName C2
SYMATTR Value 1000µ
SYMBOL res -720 -176 R0
SYMATTR InstName R3
SYMATTR Value 2k8
SYMBOL res -720 -320 R0
SYMATTR InstName R4
SYMATTR Value 3k
SYMBOL res -432 -512 R0
SYMATTR InstName R5
SYMATTR Value 100
SYMBOL npn -480 -688 R0
SYMATTR InstName Q2
SYMATTR Value QBD135
SYMBOL npn -240 -608 R0
SYMATTR InstName Q3
SYMATTR Value Qtip41c
SYMBOL res -192 -480 R0
SYMATTR InstName R6
SYMATTR Value 0.47
SYMBOL res -192 -288 R0
SYMATTR InstName R22
SYMATTR Value 0.47
SYMBOL npn -240 -64 R0
SYMATTR InstName Q10
SYMATTR Value Qtip41c
SYMBOL pnp -448 -64 M180
SYMATTR InstName Q11
SYMATTR Value QBD136
SYMBOL res -400 64 R0
SYMATTR InstName R23
SYMATTR Value 100
SYMBOL cap 0 112 R0
SYMATTR InstName C7
SYMATTR Value 100n
SYMBOL cap 16 -832 R0
SYMATTR InstName C8
SYMATTR Value 100n
SYMBOL res 48 -384 R0
SYMATTR InstName R13
SYMATTR Value 8
SYMBOL npn -672 -240 R0
SYMATTR InstName Q1
SYMATTR Value BC547B
TEXT -2112 264 Left 2 ;Las Rs de emisor son bastante buenas, me reducen mucho la distorsion de la etapa
TEXT -1336 304 Left 2 ;p.141 D-S
TEXT -704 240 Left 2 ;-V
TEXT -1872 32 Left 2 !.tran 0 23m 20m 1u
TEXT -1872 -32 Left 2 !.four {freq} V(out)
TEXT -2136 -48 Left 2 !.lib BC548B.LIB\n.lib BC558B.LIB\n.lib BD135.LIB\n.inc BD136.lib\n.lib TIP41.lib
TEXT -1896 -80 Left 2 !;step param freq list 1k 20
TEXT -1864 -8 Left 2 !.param freq=20k
