.model BC558B   PNP
+Is=1.02f
+Rb=150
+Xti=3
+Eg=1.11
+Vaf=52.31
+Bf=306.5
+Ise=10.27f
+Ne=1.764
+Ikf=91.85m
+Nk=.5351
+Xtb=1.5
+Br=6.48
+Isc=1.472f
+Nc=1.294
+Ikr=.5584
+Rc=1.086
+Cjc=9.81p
+Mjc=.332
+Vjc=.4865
+Fc=.5
+Cje=30p
+Mje=.3333
+Vje=.5
+Tr=10n
+Tf=611.6p
+Itf=1.373
+Xtf=26.05
+Vtf=10)
*		PHILIPS		pid=bc556b	case=TO92
*		91-08-02 dsq
